Circuit: * C:\Users\zuhay\Documents\GitHub\EEE4022S_Thesis\CircuitSim\CapTesting.asc

WARNING: Node N002 is floating.
WARNING: Node N003 is floating.

WARNING: Less than two connections to node N002.  This node is used by C1.
WARNING: Less than two connections to node N003.  This node is used by C2.
.OP point found by inspection.

Date: Tue Aug 19 12:35:59 2025
Total elapsed time: 0.068 seconds.

tnom = 27
temp = 27
method = modified trap
totiter = 2082
traniter = 2082
tranpoints = 1042
accept = 1042
rejected = 0
matrix size = 6
fillins = 0
solver = Normal
Matrix Compiler1: 182 bytes object code size  0.1/0.1/[0.1]
Matrix Compiler2: 394 bytes object code size  0.1/0.1/[0.1]

